/*--------------------------------*- C++ -*----------------------------------*\
| =========                 |                                                 |
| \\      /  F ield         | OpenFOAM: The Open Source CFD Toolbox           |
|  \\    /   O peration     | Version:  v2012                                 |
|   \\  /    A nd           | Website:  www.openfoam.com                      |
|    \\/     M anipulation  |                                                 |
\*---------------------------------------------------------------------------*/
FoamFile
{
    version     2.0;
    format      ascii;
    class       polyBoundaryMesh;
    location    "constant/polyMesh";
    object      boundary;
}
// * * * * * * * * * * * * * * * * * * * * * * * * * * * * * * * * * * * * * //

7
(
    frontback
    {
        type            empty;
        inGroups        1(empty);
        nFaces          66948;
        startFace       49680;
    }
    topbottom
    {
        type            patch;
        physicalType    patch;
        nFaces          63;
        startFace       116628;
    }
    outlet
    {
        type            patch;
        physicalType    patch;
        nFaces          0;
        startFace       116691;
    }
    inlet
    {
        type            patch;
        physicalType    patch;
        nFaces          58;
        startFace       116691;
    }
    walls
    {
        type            wall;
        inGroups        1(wall);
        nFaces          402;
        startFace       116749;
    }
    procBoundary0to1
    {
        type            processor;
        inGroups        1(processor);
        nFaces          186;
        startFace       117151;
        matchTolerance  0.0001;
        transform       unknown;
        myProcNo        0;
        neighbProcNo    1;
    }
    procBoundary0to2
    {
        type            processor;
        inGroups        1(processor);
        nFaces          353;
        startFace       117337;
        matchTolerance  0.0001;
        transform       unknown;
        myProcNo        0;
        neighbProcNo    2;
    }
)

// ************************************************************************* //
