/*--------------------------------*- C++ -*----------------------------------*\
| =========                 |                                                 |
| \\      /  F ield         | OpenFOAM: The Open Source CFD Toolbox           |
|  \\    /   O peration     | Version:  v2012                                 |
|   \\  /    A nd           | Website:  www.openfoam.com                      |
|    \\/     M anipulation  |                                                 |
\*---------------------------------------------------------------------------*/
FoamFile
{
    version     2.0;
    format      ascii;
    class       polyBoundaryMesh;
    location    "constant/polyMesh";
    object      boundary;
}
// * * * * * * * * * * * * * * * * * * * * * * * * * * * * * * * * * * * * * //

7
(
    frontback
    {
        type            empty;
        inGroups        1(empty);
        nFaces          37298;
        startFace       27704;
    }
    topbottom
    {
        type            patch;
        physicalType    patch;
        nFaces          119;
        startFace       65002;
    }
    outlet
    {
        type            patch;
        physicalType    patch;
        nFaces          43;
        startFace       65121;
    }
    inlet
    {
        type            patch;
        physicalType    patch;
        nFaces          0;
        startFace       65164;
    }
    walls
    {
        type            wall;
        inGroups        1(wall);
        nFaces          0;
        startFace       65164;
    }
    procBoundary3to1
    {
        type            processor;
        inGroups        1(processor);
        nFaces          241;
        startFace       65164;
        matchTolerance  0.0001;
        transform       unknown;
        myProcNo        3;
        neighbProcNo    1;
    }
    procBoundary3to2
    {
        type            processor;
        inGroups        1(processor);
        nFaces          136;
        startFace       65405;
        matchTolerance  0.0001;
        transform       unknown;
        myProcNo        3;
        neighbProcNo    2;
    }
)

// ************************************************************************* //
