/*--------------------------------*- C++ -*----------------------------------*\
| =========                 |                                                 |
| \\      /  F ield         | OpenFOAM: The Open Source CFD Toolbox           |
|  \\    /   O peration     | Version:  v2012                                 |
|   \\  /    A nd           | Website:  www.openfoam.com                      |
|    \\/     M anipulation  |                                                 |
\*---------------------------------------------------------------------------*/
FoamFile
{
    version     2.0;
    format      ascii;
    class       polyBoundaryMesh;
    location    "constant/polyMesh";
    object      boundary;
}
// * * * * * * * * * * * * * * * * * * * * * * * * * * * * * * * * * * * * * //

7
(
    frontback
    {
        type            empty;
        inGroups        1(empty);
        nFaces          37236;
        startFace       27688;
    }
    topbottom
    {
        type            patch;
        physicalType    patch;
        nFaces          48;
        startFace       64924;
    }
    outlet
    {
        type            patch;
        physicalType    patch;
        nFaces          0;
        startFace       64972;
    }
    inlet
    {
        type            patch;
        physicalType    patch;
        nFaces          41;
        startFace       64972;
    }
    walls
    {
        type            wall;
        inGroups        1(wall);
        nFaces          91;
        startFace       65013;
    }
    procBoundary2to0
    {
        type            processor;
        inGroups        1(processor);
        nFaces          174;
        startFace       65104;
        matchTolerance  0.0001;
        transform       unknown;
        myProcNo        2;
        neighbProcNo    0;
    }
    procBoundary2to3
    {
        type            processor;
        inGroups        1(processor);
        nFaces          124;
        startFace       65278;
        matchTolerance  0.0001;
        transform       unknown;
        myProcNo        2;
        neighbProcNo    3;
    }
)

// ************************************************************************* //
