/*--------------------------------*- C++ -*----------------------------------*\
| =========                 |                                                 |
| \\      /  F ield         | OpenFOAM: The Open Source CFD Toolbox           |
|  \\    /   O peration     | Version:  v2012                                 |
|   \\  /    A nd           | Website:  www.openfoam.com                      |
|    \\/     M anipulation  |                                                 |
\*---------------------------------------------------------------------------*/
FoamFile
{
    version     2.0;
    format      ascii;
    class       polyBoundaryMesh;
    location    "constant/polyMesh";
    object      boundary;
}
// * * * * * * * * * * * * * * * * * * * * * * * * * * * * * * * * * * * * * //

8
(
    frontback
    {
        type            empty;
        inGroups        1(empty);
        nFaces          36332;
        startFace       26940;
    }
    topbottom
    {
        type            patch;
        physicalType    patch;
        nFaces          48;
        startFace       63272;
    }
    outlet
    {
        type            patch;
        physicalType    patch;
        nFaces          0;
        startFace       63320;
    }
    inlet
    {
        type            patch;
        physicalType    patch;
        nFaces          43;
        startFace       63320;
    }
    walls
    {
        type            wall;
        inGroups        1(wall);
        nFaces          226;
        startFace       63363;
    }
    procBoundary0to1
    {
        type            processor;
        inGroups        1(processor);
        nFaces          129;
        startFace       63589;
        matchTolerance  0.0001;
        transform       unknown;
        myProcNo        0;
        neighbProcNo    1;
    }
    procBoundary0to2
    {
        type            processor;
        inGroups        1(processor);
        nFaces          171;
        startFace       63718;
        matchTolerance  0.0001;
        transform       unknown;
        myProcNo        0;
        neighbProcNo    2;
    }
    procBoundary0to3
    {
        type            processor;
        inGroups        1(processor);
        nFaces          1;
        startFace       63889;
        matchTolerance  0.0001;
        transform       unknown;
        myProcNo        0;
        neighbProcNo    3;
    }
)

// ************************************************************************* //
