/*--------------------------------*- C++ -*----------------------------------*\
| =========                 |                                                 |
| \\      /  F ield         | OpenFOAM: The Open Source CFD Toolbox           |
|  \\    /   O peration     | Version:  v2012                                 |
|   \\  /    A nd           | Website:  www.openfoam.com                      |
|    \\/     M anipulation  |                                                 |
\*---------------------------------------------------------------------------*/
FoamFile
{
    version     2.0;
    format      ascii;
    class       polyBoundaryMesh;
    location    "constant/polyMesh";
    object      boundary;
}
// * * * * * * * * * * * * * * * * * * * * * * * * * * * * * * * * * * * * * //

7
(
    frontback
    {
        type            empty;
        inGroups        1(empty);
        nFaces          36464;
        startFace       27087;
    }
    topbottom
    {
        type            patch;
        physicalType    patch;
        nFaces          119;
        startFace       63551;
    }
    outlet
    {
        type            patch;
        physicalType    patch;
        nFaces          41;
        startFace       63670;
    }
    inlet
    {
        type            patch;
        physicalType    patch;
        nFaces          0;
        startFace       63711;
    }
    walls
    {
        type            wall;
        inGroups        1(wall);
        nFaces          0;
        startFace       63711;
    }
    procBoundary1to0
    {
        type            processor;
        inGroups        1(processor);
        nFaces          121;
        startFace       63711;
        matchTolerance  0.0001;
        transform       unknown;
        myProcNo        1;
        neighbProcNo    0;
    }
    procBoundary1to3
    {
        type            processor;
        inGroups        1(processor);
        nFaces          241;
        startFace       63832;
        matchTolerance  0.0001;
        transform       unknown;
        myProcNo        1;
        neighbProcNo    3;
    }
)

// ************************************************************************* //
