/*--------------------------------*- C++ -*----------------------------------*\
| =========                 |                                                 |
| \\      /  F ield         | OpenFOAM: The Open Source CFD Toolbox           |
|  \\    /   O peration     | Version:  v2012                                 |
|   \\  /    A nd           | Website:  www.openfoam.com                      |
|    \\/     M anipulation  |                                                 |
\*---------------------------------------------------------------------------*/
FoamFile
{
    version     2.0;
    format      ascii;
    class       polyBoundaryMesh;
    location    "constant/polyMesh";
    object      boundary;
}
// * * * * * * * * * * * * * * * * * * * * * * * * * * * * * * * * * * * * * //

7
(
    frontback
    {
        type            empty;
        inGroups        1(empty);
        nFaces          37236;
        startFace       27663;
    }
    topbottom
    {
        type            patch;
        physicalType    patch;
        nFaces          119;
        startFace       64899;
    }
    outlet
    {
        type            patch;
        physicalType    patch;
        nFaces          43;
        startFace       65018;
    }
    inlet
    {
        type            patch;
        physicalType    patch;
        nFaces          0;
        startFace       65061;
    }
    walls
    {
        type            wall;
        inGroups        1(wall);
        nFaces          0;
        startFace       65061;
    }
    procBoundary1to0
    {
        type            processor;
        inGroups        1(processor);
        nFaces          133;
        startFace       65061;
        matchTolerance  0.0001;
        transform       unknown;
        myProcNo        1;
        neighbProcNo    0;
    }
    procBoundary1to3
    {
        type            processor;
        inGroups        1(processor);
        nFaces          233;
        startFace       65194;
        matchTolerance  0.0001;
        transform       unknown;
        myProcNo        1;
        neighbProcNo    3;
    }
)

// ************************************************************************* //
