/*--------------------------------*- C++ -*----------------------------------*\
| =========                 |                                                 |
| \\      /  F ield         | OpenFOAM: The Open Source CFD Toolbox           |
|  \\    /   O peration     | Version:  v2012                                 |
|   \\  /    A nd           | Website:  www.openfoam.com                      |
|    \\/     M anipulation  |                                                 |
\*---------------------------------------------------------------------------*/
FoamFile
{
    version     2.0;
    format      ascii;
    class       polyBoundaryMesh;
    location    "constant/polyMesh";
    object      boundary;
}
// * * * * * * * * * * * * * * * * * * * * * * * * * * * * * * * * * * * * * //

7
(
    frontback
    {
        type            empty;
        inGroups        1(empty);
        nFaces          66948;
        startFace       49868;
    }
    topbottom
    {
        type            patch;
        physicalType    patch;
        nFaces          160;
        startFace       116816;
    }
    outlet
    {
        type            patch;
        physicalType    patch;
        nFaces          55;
        startFace       116976;
    }
    inlet
    {
        type            patch;
        physicalType    patch;
        nFaces          0;
        startFace       117031;
    }
    walls
    {
        type            wall;
        inGroups        1(wall);
        nFaces          0;
        startFace       117031;
    }
    procBoundary3to1
    {
        type            processor;
        inGroups        1(processor);
        nFaces          302;
        startFace       117031;
        matchTolerance  0.0001;
        transform       unknown;
        myProcNo        3;
        neighbProcNo    1;
    }
    procBoundary3to2
    {
        type            processor;
        inGroups        1(processor);
        nFaces          169;
        startFace       117333;
        matchTolerance  0.0001;
        transform       unknown;
        myProcNo        3;
        neighbProcNo    2;
    }
)

// ************************************************************************* //
