/*--------------------------------*- C++ -*----------------------------------*\
| =========                 |                                                 |
| \\      /  F ield         | OpenFOAM: The Open Source CFD Toolbox           |
|  \\    /   O peration     | Version:  v2012                                 |
|   \\  /    A nd           | Website:  www.openfoam.com                      |
|    \\/     M anipulation  |                                                 |
\*---------------------------------------------------------------------------*/
FoamFile
{
    version     2.0;
    format      ascii;
    class       polyBoundaryMesh;
    location    "constant/polyMesh";
    object      boundary;
}
// * * * * * * * * * * * * * * * * * * * * * * * * * * * * * * * * * * * * * //

8
(
    frontback
    {
        type            empty;
        inGroups        1(empty);
        nFaces          37080;
        startFace       27506;
    }
    topbottom
    {
        type            patch;
        physicalType    patch;
        nFaces          48;
        startFace       64586;
    }
    outlet
    {
        type            patch;
        physicalType    patch;
        nFaces          0;
        startFace       64634;
    }
    inlet
    {
        type            patch;
        physicalType    patch;
        nFaces          43;
        startFace       64634;
    }
    walls
    {
        type            wall;
        inGroups        1(wall);
        nFaces          209;
        startFace       64677;
    }
    procBoundary0to1
    {
        type            processor;
        inGroups        1(processor);
        nFaces          133;
        startFace       64886;
        matchTolerance  0.0001;
        transform       unknown;
        myProcNo        0;
        neighbProcNo    1;
    }
    procBoundary0to2
    {
        type            processor;
        inGroups        1(processor);
        nFaces          174;
        startFace       65019;
        matchTolerance  0.0001;
        transform       unknown;
        myProcNo        0;
        neighbProcNo    2;
    }
    procBoundary0to3
    {
        type            processor;
        inGroups        1(processor);
        nFaces          1;
        startFace       65193;
        matchTolerance  0.0001;
        transform       unknown;
        myProcNo        0;
        neighbProcNo    3;
    }
)

// ************************************************************************* //
