/*--------------------------------*- C++ -*----------------------------------*\
| =========                 |                                                 |
| \\      /  F ield         | OpenFOAM: The Open Source CFD Toolbox           |
|  \\    /   O peration     | Version:  v2012                                 |
|   \\  /    A nd           | Website:  www.openfoam.com                      |
|    \\/     M anipulation  |                                                 |
\*---------------------------------------------------------------------------*/
FoamFile
{
    version     2.0;
    format      ascii;
    class       polyBoundaryMesh;
    location    "constant/polyMesh";
    object      boundary;
}
// * * * * * * * * * * * * * * * * * * * * * * * * * * * * * * * * * * * * * //

7
(
    frontback
    {
        type            empty;
        inGroups        1(empty);
        nFaces          68506;
        startFace       51060;
    }
    topbottom
    {
        type            patch;
        physicalType    patch;
        nFaces          63;
        startFace       119566;
    }
    outlet
    {
        type            patch;
        physicalType    patch;
        nFaces          0;
        startFace       119629;
    }
    inlet
    {
        type            patch;
        physicalType    patch;
        nFaces          54;
        startFace       119629;
    }
    walls
    {
        type            wall;
        inGroups        1(wall);
        nFaces          0;
        startFace       119683;
    }
    procBoundary2to0
    {
        type            processor;
        inGroups        1(processor);
        nFaces          353;
        startFace       119683;
        matchTolerance  0.0001;
        transform       unknown;
        myProcNo        2;
        neighbProcNo    0;
    }
    procBoundary2to3
    {
        type            processor;
        inGroups        1(processor);
        nFaces          169;
        startFace       120036;
        matchTolerance  0.0001;
        transform       unknown;
        myProcNo        2;
        neighbProcNo    3;
    }
)

// ************************************************************************* //
